<?xml version="1.0" encoding="UTF-8"?>
<!-- generated on 2021-01-20 22:38:18.793432 by $Id$ UNKNOWN
  options: <doubleminus>dir run-4 <doubleminus>test
-->
<routes xmlns:xsi="http://www.w3.org/2001/XMLSchema-instance" xsi:noNamespaceSchemaLocation="http://sumo.dlr.de/xsd/routes_file.xsd">
    <person id="0" depart="0.00" departPos="random">
        <walk from="N2N1" to="CW" arrivalPos="random" speed="2.0"/>
    </person>
    <person id="1" depart="0.64" departPos="random">
        <walk from="CW" to="CW" arrivalPos="random" speed="2.0"/>
    </person>
    <person id="2" depart="1.28" departPos="random">
        <walk from="NC" to="N2N1" arrivalPos="random" speed="2.0"/>
    </person>
    <person id="3" depart="1.92" departPos="random">
        <walk from="WC" to="CW" arrivalPos="random" speed="2.0"/>
    </person>
    <person id="4" depart="2.56" departPos="random">
        <walk from="N1N2" to="CW" arrivalPos="random" speed="2.0"/>
    </person>
    <person id="5" depart="3.21" departPos="random">
        <walk from="CW" to="N2N1" arrivalPos="random" speed="2.0"/>
    </person>
    <person id="6" depart="3.85" departPos="random">
        <walk from="CN" to="CW" arrivalPos="random" speed="2.0"/>
    </person>
    <person id="7" depart="4.49" departPos="random">
        <walk from="N2N1" to="N2N1" arrivalPos="random" speed="2.0"/>
    </person>
    <person id="8" depart="5.13" departPos="random">
        <walk from="CW" to="N2N1" arrivalPos="random" speed="2.0"/>
    </person>
    <person id="9" depart="5.77" departPos="random">
        <walk from="NC" to="CW" arrivalPos="random" speed="2.0"/>
    </person>
    <person id="10" depart="6.41" departPos="random">
        <walk from="NC" to="N2N1" arrivalPos="random" speed="2.0"/>
    </person>
    <person id="11" depart="7.05" departPos="random">
        <walk from="CW" to="CW" arrivalPos="random" speed="2.0"/>
    </person>
    <person id="12" depart="7.69" departPos="random">
        <walk from="WC" to="N1N2" arrivalPos="random" speed="2.0"/>
    </person>
    <person id="13" depart="8.33" departPos="random">
        <walk from="CN" to="CW" arrivalPos="random" speed="2.0"/>
    </person>
    <person id="14" depart="8.97" departPos="random">
        <walk from="WC" to="N2N1" arrivalPos="random" speed="2.0"/>
    </person>
    <person id="15" depart="9.62" departPos="random">
        <walk from="NC" to="N2N1" arrivalPos="random" speed="2.0"/>
    </person>
    <person id="16" depart="10.26" departPos="random">
        <walk from="N2N1" to="WC" arrivalPos="random" speed="2.0"/>
    </person>
    <person id="17" depart="10.90" departPos="random">
        <walk from="N1N2" to="N2N1" arrivalPos="random" speed="2.0"/>
    </person>
    <person id="18" depart="11.54" departPos="random">
        <walk from="NC" to="N2N1" arrivalPos="random" speed="2.0"/>
    </person>
    <person id="19" depart="12.18" departPos="random">
        <walk from="WC" to="N2N1" arrivalPos="random" speed="2.0"/>
    </person>
    <person id="20" depart="12.82" departPos="random">
        <walk from="NC" to="CW" arrivalPos="random" speed="2.0"/>
    </person>
    <person id="21" depart="13.46" departPos="random">
        <walk from="CW" to="N1N2" arrivalPos="random" speed="2.0"/>
    </person>
    <person id="22" depart="14.10" departPos="random">
        <walk from="CN" to="CW" arrivalPos="random" speed="2.0"/>
    </person>
    <person id="23" depart="14.74" departPos="random">
        <walk from="CN" to="N1N2" arrivalPos="random" speed="2.0"/>
    </person>
    <person id="24" depart="15.38" departPos="random">
        <walk from="N2N1" to="N1N2" arrivalPos="random" speed="2.0"/>
    </person>
    <person id="25" depart="16.03" departPos="random">
        <walk from="N1N2" to="CW" arrivalPos="random" speed="2.0"/>
    </person>
    <person id="26" depart="16.67" departPos="random">
        <walk from="CW" to="WC" arrivalPos="random" speed="2.0"/>
    </person>
    <person id="27" depart="17.31" departPos="random">
        <walk from="N2N1" to="N2N1" arrivalPos="random" speed="2.0"/>
    </person>
    <person id="28" depart="17.95" departPos="random">
        <walk from="CS" to="N2N1" arrivalPos="random" speed="2.0"/>
    </person>
    <person id="29" depart="18.59" departPos="random">
        <walk from="CS" to="N1N2" arrivalPos="random" speed="2.0"/>
    </person>
    <person id="30" depart="19.23" departPos="random">
        <walk from="WC" to="N2N1" arrivalPos="random" speed="2.0"/>
    </person>
    <person id="31" depart="19.87" departPos="random">
        <walk from="N2N1" to="N2N1" arrivalPos="random" speed="2.0"/>
    </person>
    <person id="32" depart="20.51" departPos="random">
        <walk from="WC" to="WC" arrivalPos="random" speed="2.0"/>
    </person>
    <person id="33" depart="21.15" departPos="random">
        <walk from="CW" to="CW" arrivalPos="random" speed="2.0"/>
    </person>
    <person id="34" depart="21.79" departPos="random">
        <walk from="CW" to="N1N2" arrivalPos="random" speed="2.0"/>
    </person>
    <person id="35" depart="22.44" departPos="random">
        <walk from="CW" to="WC" arrivalPos="random" speed="2.0"/>
    </person>
    <person id="36" depart="23.08" departPos="random">
        <walk from="WC" to="N1N2" arrivalPos="random" speed="2.0"/>
    </person>
    <person id="37" depart="23.72" departPos="random">
        <walk from="N2N1" to="N1N2" arrivalPos="random" speed="2.0"/>
    </person>
    <person id="38" depart="24.36" departPos="random">
        <walk from="WC" to="N1N2" arrivalPos="random" speed="2.0"/>
    </person>
    <person id="39" depart="25.00" departPos="random">
        <walk from="CW" to="CW" arrivalPos="random" speed="2.0"/>
    </person>
    <person id="40" depart="25.64" departPos="random">
        <walk from="N2N1" to="N1N2" arrivalPos="random" speed="2.0"/>
    </person>
    <person id="41" depart="26.28" departPos="random">
        <walk from="N2N1" to="WC" arrivalPos="random" speed="2.0"/>
    </person>
    <person id="42" depart="26.92" departPos="random">
        <walk from="N1N2" to="CW" arrivalPos="random" speed="2.0"/>
    </person>
    <person id="43" depart="27.56" departPos="random">
        <walk from="WC" to="N2N1" arrivalPos="random" speed="2.0"/>
    </person>
    <person id="44" depart="28.21" departPos="random">
        <walk from="CN" to="CW" arrivalPos="random" speed="2.0"/>
    </person>
    <person id="45" depart="28.85" departPos="random">
        <walk from="CN" to="N2N1" arrivalPos="random" speed="2.0"/>
    </person>
    <person id="46" depart="29.49" departPos="random">
        <walk from="NC" to="N1N2" arrivalPos="random" speed="2.0"/>
    </person>
    <person id="47" depart="30.13" departPos="random">
        <walk from="CN" to="N1N2" arrivalPos="random" speed="2.0"/>
    </person>
    <person id="48" depart="30.77" departPos="random">
        <walk from="WC" to="N2N1" arrivalPos="random" speed="2.0"/>
    </person>
    <person id="49" depart="31.41" departPos="random">
        <walk from="WC" to="WC" arrivalPos="random" speed="2.0"/>
    </person>
    <person id="50" depart="32.05" departPos="random">
        <walk from="CN" to="N2N1" arrivalPos="random" speed="2.0"/>
    </person>
    <person id="51" depart="32.69" departPos="random">
        <walk from="N2N1" to="N2N1" arrivalPos="random" speed="2.0"/>
    </person>
    <person id="52" depart="33.33" departPos="random">
        <walk from="CW" to="N2N1" arrivalPos="random" speed="2.0"/>
    </person>
    <person id="53" depart="33.97" departPos="random">
        <walk from="CN" to="N1N2" arrivalPos="random" speed="2.0"/>
    </person>
    <person id="54" depart="34.62" departPos="random">
        <walk from="N1N2" to="WC" arrivalPos="random" speed="2.0"/>
    </person>
    <person id="55" depart="35.26" departPos="random">
        <walk from="WC" to="N1N2" arrivalPos="random" speed="2.0"/>
    </person>
    <person id="56" depart="35.90" departPos="random">
        <walk from="N1N2" to="CW" arrivalPos="random" speed="2.0"/>
    </person>
    <person id="57" depart="36.54" departPos="random">
        <walk from="WC" to="WC" arrivalPos="random" speed="2.0"/>
    </person>
    <person id="58" depart="37.18" departPos="random">
        <walk from="CW" to="N2N1" arrivalPos="random" speed="2.0"/>
    </person>
    <person id="59" depart="37.82" departPos="random">
        <walk from="N2N1" to="CW" arrivalPos="random" speed="2.0"/>
    </person>
    <person id="60" depart="38.46" departPos="random">
        <walk from="NC" to="N2N1" arrivalPos="random" speed="2.0"/>
    </person>
    <person id="61" depart="39.10" departPos="random">
        <walk from="NC" to="N2N1" arrivalPos="random" speed="2.0"/>
    </person>
    <person id="62" depart="39.74" departPos="random">
        <walk from="CN" to="N1N2" arrivalPos="random" speed="2.0"/>
    </person>
    <person id="63" depart="40.38" departPos="random">
        <walk from="CN" to="WC" arrivalPos="random" speed="2.0"/>
    </person>
    <person id="64" depart="41.03" departPos="random">
        <walk from="WC" to="WC" arrivalPos="random" speed="2.0"/>
    </person>
    <person id="65" depart="41.67" departPos="random">
        <walk from="CW" to="CW" arrivalPos="random" speed="2.0"/>
    </person>
    <person id="66" depart="42.31" departPos="random">
        <walk from="WC" to="WC" arrivalPos="random" speed="2.0"/>
    </person>
    <person id="67" depart="42.95" departPos="random">
        <walk from="CN" to="N1N2" arrivalPos="random" speed="2.0"/>
    </person>
    <person id="68" depart="43.59" departPos="random">
        <walk from="CN" to="WC" arrivalPos="random" speed="2.0"/>
    </person>
    <person id="69" depart="44.23" departPos="random">
        <walk from="NC" to="CW" arrivalPos="random" speed="2.0"/>
    </person>
    <person id="70" depart="44.87" departPos="random">
        <walk from="N1N2" to="N2N1" arrivalPos="random" speed="2.0"/>
    </person>
    <person id="71" depart="45.51" departPos="random">
        <walk from="CW" to="WC" arrivalPos="random" speed="2.0"/>
    </person>
    <person id="72" depart="46.15" departPos="random">
        <walk from="N1N2" to="CW" arrivalPos="random" speed="2.0"/>
    </person>
    <person id="73" depart="46.79" departPos="random">
        <walk from="N2N1" to="N2N1" arrivalPos="random" speed="2.0"/>
    </person>
    <person id="74" depart="47.44" departPos="random">
        <walk from="CS" to="N1N2" arrivalPos="random" speed="2.0"/>
    </person>
    <person id="75" depart="48.08" departPos="random">
        <walk from="WC" to="N2N1" arrivalPos="random" speed="2.0"/>
    </person>
    <person id="76" depart="48.72" departPos="random">
        <walk from="N1N2" to="N2N1" arrivalPos="random" speed="2.0"/>
    </person>
    <person id="77" depart="49.36" departPos="random">
        <walk from="CN" to="CW" arrivalPos="random" speed="2.0"/>
    </person>
    <person id="78" depart="50.00" departPos="random">
        <walk from="CW" to="N2N1" arrivalPos="random" speed="2.0"/>
    </person>
    <person id="79" depart="50.64" departPos="random">
        <walk from="CW" to="CW" arrivalPos="random" speed="2.0"/>
    </person>
    <person id="80" depart="51.28" departPos="random">
        <walk from="CN" to="N2N1" arrivalPos="random" speed="2.0"/>
    </person>
    <person id="81" depart="51.92" departPos="random">
        <walk from="CW" to="WC" arrivalPos="random" speed="2.0"/>
    </person>
    <person id="82" depart="52.56" departPos="random">
        <walk from="WC" to="CW" arrivalPos="random" speed="2.0"/>
    </person>
    <person id="83" depart="53.21" departPos="random">
        <walk from="CW" to="N2N1" arrivalPos="random" speed="2.0"/>
    </person>
    <person id="84" depart="53.85" departPos="random">
        <walk from="CW" to="CW" arrivalPos="random" speed="2.0"/>
    </person>
    <person id="85" depart="54.49" departPos="random">
        <walk from="WC" to="N2N1" arrivalPos="random" speed="2.0"/>
    </person>
    <person id="86" depart="55.13" departPos="random">
        <walk from="N1N2" to="WC" arrivalPos="random" speed="2.0"/>
    </person>
    <person id="87" depart="55.77" departPos="random">
        <walk from="NC" to="CW" arrivalPos="random" speed="2.0"/>
    </person>
    <person id="88" depart="56.41" departPos="random">
        <walk from="CN" to="N1N2" arrivalPos="random" speed="2.0"/>
    </person>
    <person id="89" depart="57.05" departPos="random">
        <walk from="N1N2" to="N1N2" arrivalPos="random" speed="2.0"/>
    </person>
    <person id="90" depart="57.69" departPos="random">
        <walk from="NC" to="N2N1" arrivalPos="random" speed="2.0"/>
    </person>
    <person id="91" depart="58.33" departPos="random">
        <walk from="WC" to="CW" arrivalPos="random" speed="2.0"/>
    </person>
    <person id="92" depart="58.97" departPos="random">
        <walk from="N1N2" to="N1N2" arrivalPos="random" speed="2.0"/>
    </person>
    <person id="93" depart="59.62" departPos="random">
        <walk from="WC" to="CW" arrivalPos="random" speed="2.0"/>
    </person>
    <person id="94" depart="60.26" departPos="random">
        <walk from="CS" to="N1N2" arrivalPos="random" speed="2.0"/>
    </person>
    <person id="95" depart="60.90" departPos="random">
        <walk from="N1N2" to="N1N2" arrivalPos="random" speed="2.0"/>
    </person>
    <person id="96" depart="61.54" departPos="random">
        <walk from="CW" to="WC" arrivalPos="random" speed="2.0"/>
    </person>
    <person id="97" depart="62.18" departPos="random">
        <walk from="N1N2" to="WC" arrivalPos="random" speed="2.0"/>
    </person>
    <person id="98" depart="62.82" departPos="random">
        <walk from="N2N1" to="CW" arrivalPos="random" speed="2.0"/>
    </person>
    <person id="99" depart="63.46" departPos="random">
        <walk from="WC" to="WC" arrivalPos="random" speed="2.0"/>
    </person>
    <person id="100" depart="64.10" departPos="random">
        <walk from="WC" to="WC" arrivalPos="random" speed="2.0"/>
    </person>
    <person id="101" depart="64.74" departPos="random">
        <walk from="WC" to="CW" arrivalPos="random" speed="2.0"/>
    </person>
    <person id="102" depart="65.38" departPos="random">
        <walk from="N1N2" to="CW" arrivalPos="random" speed="2.0"/>
    </person>
    <person id="103" depart="66.03" departPos="random">
        <walk from="N1N2" to="CW" arrivalPos="random" speed="2.0"/>
    </person>
    <person id="104" depart="66.67" departPos="random">
        <walk from="N1N2" to="WC" arrivalPos="random" speed="2.0"/>
    </person>
    <person id="105" depart="67.31" departPos="random">
        <walk from="CW" to="WC" arrivalPos="random" speed="2.0"/>
    </person>
    <person id="106" depart="67.95" departPos="random">
        <walk from="N1N2" to="N1N2" arrivalPos="random" speed="2.0"/>
    </person>
    <person id="107" depart="68.59" departPos="random">
        <walk from="WC" to="WC" arrivalPos="random" speed="2.0"/>
    </person>
    <person id="108" depart="69.23" departPos="random">
        <walk from="N2N1" to="N2N1" arrivalPos="random" speed="2.0"/>
    </person>
    <person id="109" depart="69.87" departPos="random">
        <walk from="CN" to="N1N2" arrivalPos="random" speed="2.0"/>
    </person>
    <person id="110" depart="70.51" departPos="random">
        <walk from="WC" to="N2N1" arrivalPos="random" speed="2.0"/>
    </person>
    <person id="111" depart="71.15" departPos="random">
        <walk from="N2N1" to="N2N1" arrivalPos="random" speed="2.0"/>
    </person>
    <person id="112" depart="71.79" departPos="random">
        <walk from="CN" to="N2N1" arrivalPos="random" speed="2.0"/>
    </person>
    <person id="113" depart="72.44" departPos="random">
        <walk from="N1N2" to="WC" arrivalPos="random" speed="2.0"/>
    </person>
    <person id="114" depart="73.08" departPos="random">
        <walk from="CN" to="WC" arrivalPos="random" speed="2.0"/>
    </person>
    <person id="115" depart="73.72" departPos="random">
        <walk from="CN" to="CW" arrivalPos="random" speed="2.0"/>
    </person>
    <person id="116" depart="74.36" departPos="random">
        <walk from="N2N1" to="N2N1" arrivalPos="random" speed="2.0"/>
    </person>
    <person id="117" depart="75.00" departPos="random">
        <walk from="CW" to="CW" arrivalPos="random" speed="2.0"/>
    </person>
    <person id="118" depart="75.64" departPos="random">
        <walk from="WC" to="CW" arrivalPos="random" speed="2.0"/>
    </person>
    <person id="119" depart="76.28" departPos="random">
        <walk from="N2N1" to="N2N1" arrivalPos="random" speed="2.0"/>
    </person>
    <person id="120" depart="76.92" departPos="random">
        <walk from="N1N2" to="N2N1" arrivalPos="random" speed="2.0"/>
    </person>
    <person id="121" depart="77.56" departPos="random">
        <walk from="N1N2" to="WC" arrivalPos="random" speed="2.0"/>
    </person>
    <person id="122" depart="78.21" departPos="random">
        <walk from="CS" to="N2N1" arrivalPos="random" speed="2.0"/>
    </person>
    <person id="123" depart="78.85" departPos="random">
        <walk from="CW" to="N1N2" arrivalPos="random" speed="2.0"/>
    </person>
    <person id="124" depart="79.49" departPos="random">
        <walk from="N2N1" to="N1N2" arrivalPos="random" speed="2.0"/>
    </person>
    <person id="125" depart="80.13" departPos="random">
        <walk from="CW" to="WC" arrivalPos="random" speed="2.0"/>
    </person>
    <person id="126" depart="80.77" departPos="random">
        <walk from="CN" to="N1N2" arrivalPos="random" speed="2.0"/>
    </person>
    <person id="127" depart="81.41" departPos="random">
        <walk from="WC" to="WC" arrivalPos="random" speed="2.0"/>
    </person>
    <person id="128" depart="82.05" departPos="random">
        <walk from="CN" to="CW" arrivalPos="random" speed="2.0"/>
    </person>
    <person id="129" depart="82.69" departPos="random">
        <walk from="CW" to="WC" arrivalPos="random" speed="2.0"/>
    </person>
    <person id="130" depart="83.33" departPos="random">
        <walk from="WC" to="WC" arrivalPos="random" speed="2.0"/>
    </person>
    <person id="131" depart="83.97" departPos="random">
        <walk from="N1N2" to="CW" arrivalPos="random" speed="2.0"/>
    </person>
    <person id="132" depart="84.62" departPos="random">
        <walk from="NC" to="N2N1" arrivalPos="random" speed="2.0"/>
    </person>
    <person id="133" depart="85.26" departPos="random">
        <walk from="N2N1" to="WC" arrivalPos="random" speed="2.0"/>
    </person>
    <person id="134" depart="85.90" departPos="random">
        <walk from="N2N1" to="CW" arrivalPos="random" speed="2.0"/>
    </person>
    <person id="135" depart="86.54" departPos="random">
        <walk from="NC" to="N1N2" arrivalPos="random" speed="2.0"/>
    </person>
    <person id="136" depart="87.18" departPos="random">
        <walk from="N2N1" to="WC" arrivalPos="random" speed="2.0"/>
    </person>
    <person id="137" depart="87.82" departPos="random">
        <walk from="CN" to="CW" arrivalPos="random" speed="2.0"/>
    </person>
    <person id="138" depart="88.46" departPos="random">
        <walk from="CN" to="N2N1" arrivalPos="random" speed="2.0"/>
    </person>
    <person id="139" depart="89.10" departPos="random">
        <walk from="CW" to="N2N1" arrivalPos="random" speed="2.0"/>
    </person>
    <person id="140" depart="89.74" departPos="random">
        <walk from="NC" to="CW" arrivalPos="random" speed="2.0"/>
    </person>
    <person id="141" depart="90.38" departPos="random">
        <walk from="N2N1" to="N1N2" arrivalPos="random" speed="2.0"/>
    </person>
    <person id="142" depart="91.03" departPos="random">
        <walk from="N1N2" to="WC" arrivalPos="random" speed="2.0"/>
    </person>
    <person id="143" depart="91.67" departPos="random">
        <walk from="WC" to="CW" arrivalPos="random" speed="2.0"/>
    </person>
    <person id="144" depart="92.31" departPos="random">
        <walk from="N1N2" to="N1N2" arrivalPos="random" speed="2.0"/>
    </person>
    <person id="145" depart="92.95" departPos="random">
        <walk from="CN" to="WC" arrivalPos="random" speed="2.0"/>
    </person>
    <person id="146" depart="93.59" departPos="random">
        <walk from="N2N1" to="N1N2" arrivalPos="random" speed="2.0"/>
    </person>
    <person id="147" depart="94.23" departPos="random">
        <walk from="NC" to="N2N1" arrivalPos="random" speed="2.0"/>
    </person>
    <person id="148" depart="94.87" departPos="random">
        <walk from="N1N2" to="CW" arrivalPos="random" speed="2.0"/>
    </person>
    <person id="149" depart="95.51" departPos="random">
        <walk from="CN" to="WC" arrivalPos="random" speed="2.0"/>
    </person>
    <person id="150" depart="96.15" departPos="random">
        <walk from="WC" to="N2N1" arrivalPos="random" speed="2.0"/>
    </person>
    <person id="151" depart="96.79" departPos="random">
        <walk from="NC" to="N2N1" arrivalPos="random" speed="2.0"/>
    </person>
    <person id="152" depart="97.44" departPos="random">
        <walk from="CN" to="CW" arrivalPos="random" speed="2.0"/>
    </person>
    <person id="153" depart="98.08" departPos="random">
        <walk from="CW" to="WC" arrivalPos="random" speed="2.0"/>
    </person>
    <person id="154" depart="98.72" departPos="random">
        <walk from="NC" to="WC" arrivalPos="random" speed="2.0"/>
    </person>
    <person id="155" depart="99.36" departPos="random">
        <walk from="WC" to="CW" arrivalPos="random" speed="2.0"/>
    </person>
    <person id="156" depart="100.00" departPos="random">
        <walk from="CW" to="CW" arrivalPos="random" speed="2.0"/>
    </person>
</routes>
