<?xml version="1.0" encoding="UTF-8"?>
<!-- generated on 2021-01-06 18:40:35.097069 by $Id$ UNKNOWN
  options: <doubleminus>dir run-1 <doubleminus>train
-->
<routes xmlns:xsi="http://www.w3.org/2001/XMLSchema-instance" xsi:noNamespaceSchemaLocation="http://sumo.dlr.de/xsd/routes_file.xsd">
    <person id="0" depart="0.00" departPos="random">
        <walk from="N2N1" to="CW" arrivalPos="random" speed="2.0"/>
    </person>
</routes>
