<?xml version="1.0" encoding="UTF-8"?>
<edges>

 <edge id="CE" from="C" to="E" numLanes="2" speed="15.00">
   <lane index="0" disallow="all" spreadType="center" width="2.00" speed="1.5"/>
   <lane index="1" allow="passenger" spreadType="center" width="6.00"/>
 </edge>

 <edge id="EC" from="E" to="C" numLanes="2" speed="15.00">
   <lane index="0" disallow="all" spreadType="center" width="2.00" speed="1.5"/>
   <lane index="1" allow="passenger" spreadType="center" width="6.00"/>
 </edge>

 <edge id="WC" from="W" to="C" numLanes="2" speed="15.00">
    <lane index="0" allow="pedestrian" spreadType="center" width="2.00" speed="1.5"/>
   <lane index="1" allow="passenger" spreadType="center" width="6.00"/>
 </edge>

 <edge id="CW" from="C" to="W" numLanes="2" speed="15.00">
   <lane index="0" allow="pedestrian" spreadType="center" width="2.00" speed="1.5"/>
   <lane index="1" allow="passenger" spreadType="center" width="6.00"/>
 </edge>

 <edge id="NC" from="N" to="C" numLanes="2" speed="15.00">
   <lane index="0" allow="pedestrian" spreadType="center" width="2.00" speed="1.5"/>
   <lane index="1" allow="passenger" spreadType="center" width="6.00"/>
 </edge>
 
 <edge id="CN" from="C" to="N" numLanes="2" speed="15.00">
   <lane index="0" allow="pedestrian" spreadType="center" width="2.00" speed="1.5"/>
   <lane index="1" allow="passenger" spreadType="center" width="6.00"/>
 </edge>

 <edge id="SC" from="S" to="C" numLanes="2" speed="15.00">
   <lane index="0" allow="pedestrian" width="2.00" speed="1.5"/>
   <lane index="1" allow="passenger"  spreadType="center" width="6.00"/>

 </edge>
 <edge id="CS" from="C" to="S" numLanes="2" speed="15.00">
   <lane index="0" allow="pedestrian"  preadType="center" width="2.00" speed="1.5"/>
   <lane index="1" allow="passenger"  spreadType="center" width="6.00"/>
 </edge>


<edge id="NN1" from="N" to="N1" numLanes="2" speed="15.00">
   <lane index="0" allow="pedestrian" spreadType="center" width="2.00"/>
   <lane index="1" allow="passenger" spreadType="center" width="6.00"/>
 </edge>
 <edge id="N1N" from="N1" to="N" numLanes="2" speed="15.00">
   <lane index="0" allow="pedestrian" spreadType="center" width="2.00" speed="1.5"/>
   <lane index="1" allow="passenger" spreadType="center" width="6.00" />
 </edge>

 <edge id="N1N2" from="N1" to="N2" numLanes="2" speed="15.00">
   <lane index="0" allow="pedestrian" spreadType="center" width="2.00"/>
   <lane index="1" allow="passenger" spreadType="center" width="6.00"/>
 </edge>
 <edge id="N2N1" from="N2" to="N1" numLanes="2" speed="15.00">
   <lane index="0" allow="pedestrian" spreadType="center" width="2.00" speed="1.5"/>
   <lane index="1" allow="passenger" spreadType="center" width="6.00" />
 </edge>

  <edge id="N2N3" from="N2" to="N3" numLanes="2" speed="15.00">
   <lane index="0" allow="pedestrian" spreadType="center" width="2.00"/>
   <lane index="1" allow="passenger" spreadType="center" width="6.00"/>
 </edge>
 <edge id="N3N2" from="N3" to="N2" numLanes="2" speed="15.00">
   <lane index="0" allow="pedestrian" spreadType="center" width="2.00" speed="1.5"/>
   <lane index="1" allow="passenger" spreadType="center" width="6.00" />
 </edge>

 <edge id="WW1" from="W" to="W1" numLanes="2" speed="15.00">
   <lane index="0" disallow="all" spreadType="center" width="2.00" speed="1.5" />
   <lane index="1" allow="passenger" spreadType="center" width="6.00"  />
 </edge>
 <edge id="W1W" from="W1" to="W" numLanes="2" speed="15.00">
   <lane index="0" disallow="all" spreadType="center" width="2.00" speed="1.5"/>
   <lane index="1" allow="passenger" spreadType="center" width="6.00" />
 </edge>   

 <edge id="SS1" from="S" to="S1" numLanes="2" speed="15.00">
   <lane index="0" disallow="all" spreadType="center" width="2.00" speed="1.5" />
   <lane index="1" allow="passenger" spreadType="center" width="6.00"  />
 </edge>
 <edge id="S1S" from="S1" to="S" numLanes="2" speed="15.00">
   <lane index="0" disallow="all" spreadType="center" width="2.00" speed="1.5"/>
   <lane index="1" allow="passenger" spreadType="center" width="6.00" />
 </edge>  
 

</edges>

