<?xml version="1.0" encoding="UTF-8"?>

<configuration>
    <input>
        <net-file value="urban.net.xml"/>
        <route-files value="urban.rou.xml, pedestrian.trips.xml"/>          
        
        <additional-files value="urban.tll.xml"/>
 		<gui-settings-file value="urban.settings.xml"/>
    </input>
    <time>
 		<step-length value="0.1"/>
    </time>
</configuration>
