<?xml version="1.0" encoding="UTF-8"?>

<!-- generated on Mon Dec 28 09:47:43 2020 by Eclipse SUMO netconvert Version 1.8.0
<configuration xmlns:xsi="http://www.w3.org/2001/XMLSchema-instance" xsi:noNamespaceSchemaLocation="http://sumo.dlr.de/xsd/netconvertConfiguration.xsd">

    <input>
        <node-files value="urban.nod.xml"/>
        <edge-files value="urban.edg.xml"/>
        <connection-files value="urban.con.xml"/>
    </input>

    <output>
        <output-file value="urban.net.xml"/>
    </output>

    <junctions>
        <no-turnarounds value="true"/>
    </junctions>

    <report>
        <aggregate-warnings value="5"/>
    </report>

</configuration>
-->

<net version="1.6" junctionCornerDetail="5" limitTurnSpeed="5.50" xmlns:xsi="http://www.w3.org/2001/XMLSchema-instance" xsi:noNamespaceSchemaLocation="http://sumo.dlr.de/xsd/net_file.xsd">

    <location netOffset="75.00,50.00" convBoundary="0.00,0.00,125.00,250.00" origBoundary="-75.00,-50.00,50.00,200.00" projParameter="!"/>

    <edge id=":C_0" function="internal">
        <lane id=":C_0_0" index="0" allow="passenger" speed="7.46" length="7.10" width="6.00" shape="72.00,60.00 71.56,56.94 70.25,54.75 69.00,54.00"/>
    </edge>
    <edge id=":C_1" function="internal">
        <lane id=":C_1_0" index="0" allow="passenger" speed="15.00" length="20.00" width="6.00" shape="72.00,60.00 72.00,40.00"/>
    </edge>
    <edge id=":C_2" function="internal">
        <lane id=":C_2_0" index="0" allow="passenger" speed="9.57" length="7.88" width="6.00" shape="72.00,60.00 73.17,55.38 75.00,52.86"/>
    </edge>
    <edge id=":C_12" function="internal">
        <lane id=":C_12_0" index="0" allow="passenger" speed="7.46" length="4.19" width="6.00" shape="69.00,54.00 68.06,53.44 65.00,53.00"/>
    </edge>
    <edge id=":C_13" function="internal">
        <lane id=":C_13_0" index="0" allow="passenger" speed="9.57" length="11.98" width="6.00" shape="75.00,52.86 76.20,51.20 80.38,48.17 85.00,47.00"/>
    </edge>
    <edge id=":C_3" function="internal">
        <lane id=":C_3_0" index="0" allow="passenger" speed="7.46" length="7.10" width="6.00" shape="85.00,53.00 81.94,53.44 79.75,54.75 79.00,56.00"/>
    </edge>
    <edge id=":C_4" function="internal">
        <lane id=":C_4_0" index="0" allow="passenger" speed="15.00" length="20.00" width="6.00" shape="85.00,53.00 65.00,53.00"/>
    </edge>
    <edge id=":C_5" function="internal">
        <lane id=":C_5_0" index="0" allow="passenger" speed="9.57" length="7.88" width="6.00" shape="85.00,53.00 80.38,51.83 77.86,50.00"/>
    </edge>
    <edge id=":C_14" function="internal">
        <lane id=":C_14_0" index="0" allow="passenger" speed="7.46" length="4.19" width="6.00" shape="79.00,56.00 78.44,56.94 78.00,60.00"/>
    </edge>
    <edge id=":C_15" function="internal">
        <lane id=":C_15_0" index="0" allow="passenger" speed="9.57" length="11.98" width="6.00" shape="77.86,50.00 76.20,48.80 73.17,44.62 72.00,40.00"/>
    </edge>
    <edge id=":C_6" function="internal">
        <lane id=":C_6_0" index="0" allow="passenger" speed="7.46" length="7.10" width="6.00" shape="78.00,40.00 78.44,43.06 79.75,45.25 81.00,46.00"/>
    </edge>
    <edge id=":C_7" function="internal">
        <lane id=":C_7_0" index="0" allow="passenger" speed="15.00" length="20.00" width="6.00" shape="78.00,40.00 78.00,60.00"/>
    </edge>
    <edge id=":C_8" function="internal">
        <lane id=":C_8_0" index="0" allow="passenger" speed="9.57" length="7.88" width="6.00" shape="78.00,40.00 76.83,44.62 75.00,47.14"/>
    </edge>
    <edge id=":C_16" function="internal">
        <lane id=":C_16_0" index="0" allow="passenger" speed="7.46" length="4.19" width="6.00" shape="81.00,46.00 81.94,46.56 85.00,47.00"/>
    </edge>
    <edge id=":C_17" function="internal">
        <lane id=":C_17_0" index="0" allow="passenger" speed="9.57" length="11.98" width="6.00" shape="75.00,47.14 73.80,48.80 69.62,51.83 65.00,53.00"/>
    </edge>
    <edge id=":C_9" function="internal">
        <lane id=":C_9_0" index="0" allow="passenger" speed="7.46" length="7.10" width="6.00" shape="65.00,47.00 68.06,46.56 70.25,45.25 71.00,44.00"/>
    </edge>
    <edge id=":C_10" function="internal">
        <lane id=":C_10_0" index="0" allow="passenger" speed="15.00" length="20.00" width="6.00" shape="65.00,47.00 85.00,47.00"/>
    </edge>
    <edge id=":C_11" function="internal">
        <lane id=":C_11_0" index="0" allow="passenger" speed="9.57" length="7.88" width="6.00" shape="65.00,47.00 69.62,48.17 72.14,50.00"/>
    </edge>
    <edge id=":C_18" function="internal">
        <lane id=":C_18_0" index="0" allow="passenger" speed="7.46" length="4.19" width="6.00" shape="71.00,44.00 71.56,43.06 72.00,40.00"/>
    </edge>
    <edge id=":C_19" function="internal">
        <lane id=":C_19_0" index="0" allow="passenger" speed="9.57" length="11.98" width="6.00" shape="72.14,50.00 73.80,51.20 76.83,55.38 78.00,60.00"/>
    </edge>
    <edge id=":C_c0" function="crossing" crossingEdges="CN NC">
        <lane id=":C_c0_0" index="0" allow="pedestrian" speed="1.00" length="12.00" width="4.00" shape="81.00,58.00 69.00,58.00"/>
    </edge>
    <edge id=":C_c1" function="crossing" crossingEdges="CE EC">
        <lane id=":C_c1_0" index="0" allow="pedestrian" speed="1.00" length="12.00" width="4.00" shape="83.00,44.00 83.00,56.00"/>
    </edge>
    <edge id=":C_c2" function="crossing" crossingEdges="CS SC">
        <lane id=":C_c2_0" index="0" allow="pedestrian" speed="1.00" length="12.00" width="4.00" shape="69.00,42.00 81.00,42.00"/>
    </edge>
    <edge id=":C_c3" function="crossing" crossingEdges="CW WC">
        <lane id=":C_c3_0" index="0" allow="pedestrian" speed="1.00" length="12.00" width="4.00" shape="67.00,56.00 67.00,44.00"/>
    </edge>
    <edge id=":C_w0" function="walkingarea">
        <lane id=":C_w0_0" index="0" allow="pedestrian" speed="1.00" length="3.30" width="4.00" shape="65.00,56.00 65.00,58.00 67.00,60.00 69.00,60.00 68.89,58.78 68.56,57.78 68.00,57.00 67.22,56.44 66.22,56.11"/>
    </edge>
    <edge id=":C_w1" function="walkingarea">
        <lane id=":C_w1_0" index="0" allow="pedestrian" speed="1.00" length="3.06" width="4.00" shape="81.00,60.00 83.00,60.00 85.00,56.00 83.78,56.11 82.78,56.44 82.00,57.00 81.44,57.78 81.11,58.78"/>
    </edge>
    <edge id=":C_w2" function="walkingarea">
        <lane id=":C_w2_0" index="0" allow="pedestrian" speed="1.00" length="3.06" width="4.00" shape="85.00,44.00 83.00,40.00 81.00,40.00 81.11,41.22 81.44,42.22 82.00,43.00 82.78,43.56 83.78,43.89"/>
    </edge>
    <edge id=":C_w3" function="walkingarea">
        <lane id=":C_w3_0" index="0" allow="pedestrian" speed="1.00" length="3.30" width="4.00" shape="69.00,40.00 67.00,40.00 65.00,42.00 65.00,44.00 66.22,43.89 67.22,43.56 68.00,43.00 68.56,42.22 68.89,41.22"/>
    </edge>
    <edge id=":N_0" function="internal">
        <lane id=":N_0_0" index="0" allow="passenger" speed="15.00" length="0.10" width="6.00" shape="72.00,70.00 72.00,70.00"/>
    </edge>
    <edge id=":N_1" function="internal">
        <lane id=":N_1_0" index="0" allow="passenger" speed="15.00" length="0.10" width="6.00" shape="78.00,70.00 78.00,70.00"/>
    </edge>
    <edge id=":N_w0" function="walkingarea">
        <lane id=":N_w0_0" index="0" allow="pedestrian" speed="1.00" length="0.10" width="2.00" shape="69.00,70.00 67.00,70.00 67.00,70.00 69.00,70.00"/>
    </edge>
    <edge id=":N_w1" function="walkingarea">
        <lane id=":N_w1_0" index="0" allow="pedestrian" speed="1.00" length="0.10" width="2.00" shape="81.00,70.00 83.00,70.00 83.00,70.00 81.00,70.00"/>
    </edge>
    <edge id=":N1_0" function="internal">
        <lane id=":N1_0_0" index="0" allow="passenger" speed="15.00" length="0.10" width="6.00" shape="72.00,80.00 72.00,80.00"/>
    </edge>
    <edge id=":N1_1" function="internal">
        <lane id=":N1_1_0" index="0" allow="passenger" speed="15.00" length="0.10" width="6.00" shape="78.00,80.00 78.00,80.00"/>
    </edge>
    <edge id=":N1_w0" function="walkingarea">
        <lane id=":N1_w0_0" index="0" allow="pedestrian" speed="1.00" length="0.10" width="2.00" shape="69.00,80.00 67.00,80.00 67.00,80.00 69.00,80.00"/>
    </edge>
    <edge id=":N1_w1" function="walkingarea">
        <lane id=":N1_w1_0" index="0" allow="pedestrian" speed="1.00" length="0.10" width="2.00" shape="81.00,80.00 83.00,80.00 83.00,80.00 81.00,80.00"/>
    </edge>
    <edge id=":N2_0" function="internal">
        <lane id=":N2_0_0" index="0" allow="passenger" speed="15.00" length="0.10" width="6.00" shape="72.00,90.00 72.00,90.00"/>
    </edge>
    <edge id=":N2_1" function="internal">
        <lane id=":N2_1_0" index="0" allow="passenger" speed="15.00" length="0.10" width="6.00" shape="78.00,90.00 78.00,90.00"/>
    </edge>
    <edge id=":N2_c0" function="crossing" crossingEdges="N2N1 N1N2">
        <lane id=":N2_c0_0" index="0" allow="pedestrian" speed="1.00" length="12.00" width="4.00" shape="69.00,92.00 81.00,92.00"/>
    </edge>
    <edge id=":N2_w0" function="walkingarea">
        <lane id=":N2_w0_0" index="0" allow="pedestrian" speed="1.00" length="2.24" width="4.00" shape="69.00,94.00 69.00,90.00 67.00,90.00 67.00,90.00 69.00,90.00"/>
    </edge>
    <edge id=":N2_w1" function="walkingarea">
        <lane id=":N2_w1_0" index="0" allow="pedestrian" speed="1.00" length="2.24" width="4.00" shape="81.00,90.00 83.00,90.00 83.00,90.00 81.00,90.00 81.00,94.00"/>
    </edge>
    <edge id=":N3_w0" function="walkingarea">
        <lane id=":N3_w0_0" index="0" allow="pedestrian" speed="1.00" length="14.00" width="2.00" shape="69.00,250.00 67.00,250.00 83.00,250.00 81.00,250.00"/>
    </edge>
    <edge id=":S_0" function="internal">
        <lane id=":S_0_0" index="0" allow="passenger" speed="15.00" length="0.10" width="6.00" shape="72.00,25.00 72.00,25.00"/>
    </edge>
    <edge id=":S_1" function="internal">
        <lane id=":S_1_0" index="0" allow="passenger" speed="15.00" length="0.10" width="6.00" shape="78.00,25.00 78.00,25.00"/>
    </edge>
    <edge id=":W_0" function="internal">
        <lane id=":W_0_0" index="0" allow="passenger" speed="15.00" length="0.10" width="6.00" shape="50.00,53.00 50.00,53.00"/>
    </edge>
    <edge id=":W_1" function="internal">
        <lane id=":W_1_0" index="0" allow="passenger" speed="15.00" length="0.10" width="6.00" shape="50.00,47.00 50.00,47.00"/>
    </edge>

    <edge id="CE" from="C" to="E" priority="-1">
        <lane id="CE_0" index="0" disallow="all" speed="1.50" length="40.00" width="2.00" shape="85.00,43.00 125.00,43.00"/>
        <lane id="CE_1" index="1" allow="passenger" speed="15.00" length="40.00" width="6.00" shape="85.00,47.00 125.00,47.00"/>
    </edge>
    <edge id="CN" from="C" to="N" priority="-1">
        <lane id="CN_0" index="0" allow="pedestrian" speed="1.50" length="10.00" width="2.00" shape="82.00,60.00 82.00,70.00"/>
        <lane id="CN_1" index="1" allow="passenger" speed="15.00" length="10.00" width="6.00" shape="78.00,60.00 78.00,70.00"/>
    </edge>
    <edge id="CS" from="C" to="S" priority="-1">
        <lane id="CS_0" index="0" allow="pedestrian" speed="1.50" length="15.00" width="2.00" shape="68.00,40.00 68.00,25.00"/>
        <lane id="CS_1" index="1" allow="passenger" speed="15.00" length="15.00" width="6.00" shape="72.00,40.00 72.00,25.00"/>
    </edge>
    <edge id="CW" from="C" to="W" priority="-1">
        <lane id="CW_0" index="0" allow="pedestrian" speed="1.50" length="15.00" width="2.00" shape="65.00,57.00 50.00,57.00"/>
        <lane id="CW_1" index="1" allow="passenger" speed="15.00" length="15.00" width="6.00" shape="65.00,53.00 50.00,53.00"/>
    </edge>
    <edge id="EC" from="E" to="C" priority="-1">
        <lane id="EC_0" index="0" disallow="all" speed="1.50" length="40.00" width="2.00" shape="125.00,57.00 85.00,57.00"/>
        <lane id="EC_1" index="1" allow="passenger" speed="15.00" length="40.00" width="6.00" shape="125.00,53.00 85.00,53.00"/>
    </edge>
    <edge id="N1N" from="N1" to="N" priority="-1">
        <lane id="N1N_0" index="0" allow="pedestrian" speed="1.50" length="10.00" width="2.00" shape="68.00,80.00 68.00,70.00"/>
        <lane id="N1N_1" index="1" allow="passenger" speed="15.00" length="10.00" width="6.00" shape="72.00,80.00 72.00,70.00"/>
    </edge>
    <edge id="N1N2" from="N1" to="N2" priority="-1">
        <lane id="N1N2_0" index="0" allow="pedestrian" speed="15.00" length="10.00" width="2.00" shape="82.00,80.00 82.00,90.00"/>
        <lane id="N1N2_1" index="1" allow="passenger" speed="15.00" length="10.00" width="6.00" shape="78.00,80.00 78.00,90.00"/>
    </edge>
    <edge id="N2N1" from="N2" to="N1" priority="-1">
        <lane id="N2N1_0" index="0" allow="pedestrian" speed="1.50" length="10.00" width="2.00" shape="68.00,90.00 68.00,80.00"/>
        <lane id="N2N1_1" index="1" allow="passenger" speed="15.00" length="10.00" width="6.00" shape="72.00,90.00 72.00,80.00"/>
    </edge>
    <edge id="N2N3" from="N2" to="N3" priority="-1">
        <lane id="N2N3_0" index="0" allow="pedestrian" speed="15.00" length="160.00" width="2.00" shape="82.00,90.00 82.00,250.00"/>
        <lane id="N2N3_1" index="1" allow="passenger" speed="15.00" length="160.00" width="6.00" shape="78.00,90.00 78.00,250.00"/>
    </edge>
    <edge id="N3N2" from="N3" to="N2" priority="-1">
        <lane id="N3N2_0" index="0" allow="pedestrian" speed="1.50" length="160.00" width="2.00" shape="68.00,250.00 68.00,90.00"/>
        <lane id="N3N2_1" index="1" allow="passenger" speed="15.00" length="160.00" width="6.00" shape="72.00,250.00 72.00,90.00"/>
    </edge>
    <edge id="NC" from="N" to="C" priority="-1">
        <lane id="NC_0" index="0" allow="pedestrian" speed="1.50" length="10.00" width="2.00" shape="68.00,70.00 68.00,60.00"/>
        <lane id="NC_1" index="1" allow="passenger" speed="15.00" length="10.00" width="6.00" shape="72.00,70.00 72.00,60.00"/>
    </edge>
    <edge id="NN1" from="N" to="N1" priority="-1">
        <lane id="NN1_0" index="0" allow="pedestrian" speed="15.00" length="10.00" width="2.00" shape="82.00,70.00 82.00,80.00"/>
        <lane id="NN1_1" index="1" allow="passenger" speed="15.00" length="10.00" width="6.00" shape="78.00,70.00 78.00,80.00"/>
    </edge>
    <edge id="S1S" from="S1" to="S" priority="-1">
        <lane id="S1S_0" index="0" disallow="all" speed="1.50" length="25.00" width="2.00" shape="82.00,0.00 82.00,25.00"/>
        <lane id="S1S_1" index="1" allow="passenger" speed="15.00" length="25.00" width="6.00" shape="78.00,0.00 78.00,25.00"/>
    </edge>
    <edge id="SC" from="S" to="C" priority="-1">
        <lane id="SC_0" index="0" allow="pedestrian" speed="1.50" length="15.00" width="2.00" shape="82.00,25.00 82.00,40.00"/>
        <lane id="SC_1" index="1" allow="passenger" speed="15.00" length="15.00" width="6.00" shape="78.00,25.00 78.00,40.00"/>
    </edge>
    <edge id="SS1" from="S" to="S1" priority="-1">
        <lane id="SS1_0" index="0" disallow="all" speed="1.50" length="25.00" width="2.00" shape="68.00,25.00 68.00,0.00"/>
        <lane id="SS1_1" index="1" allow="passenger" speed="15.00" length="25.00" width="6.00" shape="72.00,25.00 72.00,0.00"/>
    </edge>
    <edge id="W1W" from="W1" to="W" priority="-1">
        <lane id="W1W_0" index="0" disallow="all" speed="1.50" length="50.00" width="2.00" shape="0.00,43.00 50.00,43.00"/>
        <lane id="W1W_1" index="1" allow="passenger" speed="15.00" length="50.00" width="6.00" shape="0.00,47.00 50.00,47.00"/>
    </edge>
    <edge id="WC" from="W" to="C" priority="-1">
        <lane id="WC_0" index="0" allow="pedestrian" speed="1.50" length="15.00" width="2.00" shape="50.00,43.00 65.00,43.00"/>
        <lane id="WC_1" index="1" allow="passenger" speed="15.00" length="15.00" width="6.00" shape="50.00,47.00 65.00,47.00"/>
    </edge>
    <edge id="WW1" from="W" to="W1" priority="-1">
        <lane id="WW1_0" index="0" disallow="all" speed="1.50" length="50.00" width="2.00" shape="50.00,57.00 0.00,57.00"/>
        <lane id="WW1_1" index="1" allow="passenger" speed="15.00" length="50.00" width="6.00" shape="50.00,53.00 0.00,53.00"/>
    </edge>

    <tlLogic id="C" type="static" programID="0" offset="0">
        <phase duration="37" state="gGgrrrgGgrrrrGrG"/>
        <phase duration="5"  state="gGgrrrgGgrrrrrrr"/>
        <phase duration="3"  state="yyyrrryyyrrrrrrr"/>
        <phase duration="37" state="rrrgGgrrrgGgGrGr"/>
        <phase duration="5"  state="rrrgGgrrrgGgrrrr"/>
        <phase duration="3"  state="rrryyyrrryyyrrrr"/>
    </tlLogic>
    <tlLogic id="N2" type="static" programID="0" offset="0">
        <phase duration="77" state="GGr"/>
        <phase duration="3"  state="yyr"/>
        <phase duration="5"  state="rrG"/>
        <phase duration="5"  state="rrr"/>
    </tlLogic>

    <junction id="C" type="traffic_light" x="75.00" y="50.00" incLanes="NC_0 NC_1 EC_0 EC_1 SC_0 SC_1 WC_0 WC_1 :C_w1_0 :C_w2_0 :C_w3_0 :C_w0_0" intLanes=":C_12_0 :C_1_0 :C_13_0 :C_14_0 :C_4_0 :C_15_0 :C_16_0 :C_7_0 :C_17_0 :C_18_0 :C_10_0 :C_19_0 :C_c0_0 :C_c1_0 :C_c2_0 :C_c3_0" shape="67.00,60.00 83.00,60.00 83.22,57.78 83.50,57.00 83.89,56.44 84.39,56.11 85.00,56.00 85.00,44.00 83.89,43.56 83.50,43.00 83.22,42.22 83.06,41.22 83.00,40.00 67.00,40.00 66.78,41.11 66.50,41.50 66.11,41.78 65.61,41.94 65.00,42.00 65.00,58.00 66.11,58.22 66.50,58.50 66.78,58.89 66.94,59.39">
        <request index="0"  response="1001000000000000" foes="1001000100010000" cont="1"/>
        <request index="1"  response="0101101000100000" foes="0101111100110000" cont="0"/>
        <request index="2"  response="0011100011100000" foes="0011110011110000" cont="1"/>
        <request index="3"  response="0011000010000000" foes="0011100010000000" cont="1"/>
        <request index="4"  response="1010000110000111" foes="1010100110000111" cont="0"/>
        <request index="5"  response="0110011110000110" foes="0110011110000110" cont="1"/>
        <request index="6"  response="0110000000000000" foes="0110010000000100" cont="1"/>
        <request index="7"  response="0101100000101000" foes="0101110000111100" cont="0"/>
        <request index="8"  response="1100100000100011" foes="1100110000110011" cont="1"/>
        <request index="9"  response="1100000000000010" foes="1100000000100010" cont="1"/>
        <request index="10" response="1010000111000110" foes="1010000111100110" cont="0"/>
        <request index="11" response="1001000110011110" foes="1001000110011110" cont="1"/>
        <request index="12" response="0000000000000000" foes="0000100010001111" cont="0"/>
        <request index="13" response="0000000000000000" foes="0000010001111100" cont="0"/>
        <request index="14" response="0000000000000000" foes="0000001111100010" cont="0"/>
        <request index="15" response="0000000000000000" foes="0000111100010001" cont="0"/>
    </junction>
    <junction id="E" type="unregulated" x="125.00" y="50.00" incLanes="CE_0 CE_1" intLanes="" shape="125.00,50.00 125.00,44.00 125.00,50.00"/>
    <junction id="N" type="unregulated" x="75.00" y="70.00" incLanes="N1N_0 N1N_1 CN_0 CN_1" intLanes=":N_0_0 :N_1_0" shape="67.00,70.00 83.00,70.00 67.00,70.00"/>
    <junction id="N1" type="unregulated" x="75.00" y="80.00" incLanes="N2N1_0 N2N1_1 NN1_0 NN1_1" intLanes=":N1_0_0 :N1_1_0" shape="67.00,80.00 83.00,80.00 67.00,80.00"/>
    <junction id="N2" type="traffic_light" x="75.00" y="90.00" incLanes="N3N2_0 N3N2_1 N1N2_0 N1N2_1 :N2_w0_0" intLanes=":N2_0_0 :N2_1_0 :N2_c0_0" shape="67.00,90.00 83.00,90.00 67.00,90.00">
        <request index="0" response="100" foes="100" cont="0"/>
        <request index="1" response="100" foes="100" cont="0"/>
        <request index="2" response="000" foes="011" cont="0"/>
    </junction>
    <junction id="N3" type="unregulated" x="75.00" y="250.00" incLanes="N2N3_0 N2N3_1" intLanes="" shape="75.00,250.00 83.00,250.00 75.00,250.00"/>
    <junction id="S" type="unregulated" x="75.00" y="25.00" incLanes="CS_0 CS_1 S1S_0 S1S_1" intLanes=":S_0_0 :S_1_0" shape="67.00,25.00 81.00,25.00 69.00,25.00"/>
    <junction id="S1" type="unregulated" x="75.00" y="0.00" incLanes="SS1_0 SS1_1" intLanes="" shape="75.00,0.00 69.00,0.00 75.00,0.00"/>
    <junction id="W" type="unregulated" x="50.00" y="50.00" incLanes="CW_0 CW_1 W1W_0 W1W_1" intLanes=":W_0_0 :W_1_0" shape="50.00,58.00 50.00,44.00 50.00,56.00"/>
    <junction id="W1" type="unregulated" x="0.00" y="50.00" incLanes="WW1_0 WW1_1" intLanes="" shape="0.00,50.00 0.00,56.00 0.00,50.00"/>

    <junction id=":C_12_0" type="internal" x="69.00" y="54.00" incLanes=":C_0_0" intLanes=":C_4_0 :C_8_0 :C_c0_0 :C_c3_0"/>
    <junction id=":C_13_0" type="internal" x="75.00" y="52.86" incLanes=":C_2_0 SC_1" intLanes=":C_4_0 :C_5_0 :C_6_0 :C_7_0 :C_10_0 :C_11_0 :C_c0_0 :C_c1_0"/>
    <junction id=":C_14_0" type="internal" x="79.00" y="56.00" incLanes=":C_3_0" intLanes=":C_7_0 :C_11_0 :C_c0_0 :C_c1_0"/>
    <junction id=":C_15_0" type="internal" x="77.86" y="50.00" incLanes=":C_5_0 WC_1" intLanes=":C_1_0 :C_2_0 :C_7_0 :C_8_0 :C_9_0 :C_10_0 :C_c1_0 :C_c2_0"/>
    <junction id=":C_16_0" type="internal" x="81.00" y="46.00" incLanes=":C_6_0" intLanes=":C_2_0 :C_10_0 :C_c1_0 :C_c2_0"/>
    <junction id=":C_17_0" type="internal" x="75.00" y="47.14" incLanes=":C_8_0 NC_1" intLanes=":C_0_0 :C_1_0 :C_4_0 :C_5_0 :C_10_0 :C_11_0 :C_c2_0 :C_c3_0"/>
    <junction id=":C_18_0" type="internal" x="71.00" y="44.00" incLanes=":C_9_0" intLanes=":C_1_0 :C_5_0 :C_c2_0 :C_c3_0"/>
    <junction id=":C_19_0" type="internal" x="72.14" y="50.00" incLanes=":C_11_0 EC_1" intLanes=":C_1_0 :C_2_0 :C_3_0 :C_4_0 :C_7_0 :C_8_0 :C_c0_0 :C_c3_0"/>

    <connection from="CN" to="NN1" fromLane="1" toLane="1" via=":N_1_0" dir="s" state="M"/>
    <connection from="CS" to="SS1" fromLane="1" toLane="1" via=":S_0_0" dir="s" state="M"/>
    <connection from="CW" to="WW1" fromLane="1" toLane="1" via=":W_0_0" dir="s" state="M"/>
    <connection from="EC" to="CN" fromLane="1" toLane="1" via=":C_3_0" tl="C" linkIndex="3" dir="r" state="o"/>
    <connection from="EC" to="CW" fromLane="1" toLane="1" via=":C_4_0" tl="C" linkIndex="4" dir="s" state="o"/>
    <connection from="EC" to="CS" fromLane="1" toLane="1" via=":C_5_0" tl="C" linkIndex="5" dir="l" state="o"/>
    <connection from="N1N" to="NC" fromLane="1" toLane="1" via=":N_0_0" dir="s" state="M"/>
    <connection from="N1N2" to="N2N3" fromLane="1" toLane="1" via=":N2_1_0" tl="N2" linkIndex="1" dir="s" state="o"/>
    <connection from="N2N1" to="N1N" fromLane="1" toLane="1" via=":N1_0_0" dir="s" state="M"/>
    <connection from="N3N2" to="N2N1" fromLane="1" toLane="1" via=":N2_0_0" tl="N2" linkIndex="0" dir="s" state="o"/>
    <connection from="NC" to="CW" fromLane="1" toLane="1" via=":C_0_0" tl="C" linkIndex="0" dir="r" state="o"/>
    <connection from="NC" to="CS" fromLane="1" toLane="1" via=":C_1_0" tl="C" linkIndex="1" dir="s" state="o"/>
    <connection from="NC" to="CE" fromLane="1" toLane="1" via=":C_2_0" tl="C" linkIndex="2" dir="l" state="o"/>
    <connection from="NN1" to="N1N2" fromLane="1" toLane="1" via=":N1_1_0" dir="s" state="M"/>
    <connection from="S1S" to="SC" fromLane="1" toLane="1" via=":S_1_0" dir="s" state="M"/>
    <connection from="SC" to="CE" fromLane="1" toLane="1" via=":C_6_0" tl="C" linkIndex="6" dir="r" state="o"/>
    <connection from="SC" to="CN" fromLane="1" toLane="1" via=":C_7_0" tl="C" linkIndex="7" dir="s" state="o"/>
    <connection from="SC" to="CW" fromLane="1" toLane="1" via=":C_8_0" tl="C" linkIndex="8" dir="l" state="o"/>
    <connection from="W1W" to="WC" fromLane="1" toLane="1" via=":W_1_0" dir="s" state="M"/>
    <connection from="WC" to="CS" fromLane="1" toLane="1" via=":C_9_0" tl="C" linkIndex="9" dir="r" state="o"/>
    <connection from="WC" to="CE" fromLane="1" toLane="1" via=":C_10_0" tl="C" linkIndex="10" dir="s" state="o"/>
    <connection from="WC" to="CN" fromLane="1" toLane="1" via=":C_11_0" tl="C" linkIndex="11" dir="l" state="o"/>

    <connection from=":C_0" to="CW" fromLane="0" toLane="1" via=":C_12_0" dir="r" state="m"/>
    <connection from=":C_12" to="CW" fromLane="0" toLane="1" dir="r" state="M"/>
    <connection from=":C_1" to="CS" fromLane="0" toLane="1" dir="s" state="M"/>
    <connection from=":C_2" to="CE" fromLane="0" toLane="1" via=":C_13_0" dir="l" state="m"/>
    <connection from=":C_13" to="CE" fromLane="0" toLane="1" dir="l" state="M"/>
    <connection from=":C_3" to="CN" fromLane="0" toLane="1" via=":C_14_0" dir="r" state="m"/>
    <connection from=":C_14" to="CN" fromLane="0" toLane="1" dir="r" state="M"/>
    <connection from=":C_4" to="CW" fromLane="0" toLane="1" dir="s" state="M"/>
    <connection from=":C_5" to="CS" fromLane="0" toLane="1" via=":C_15_0" dir="l" state="m"/>
    <connection from=":C_15" to="CS" fromLane="0" toLane="1" dir="l" state="M"/>
    <connection from=":C_6" to="CE" fromLane="0" toLane="1" via=":C_16_0" dir="r" state="m"/>
    <connection from=":C_16" to="CE" fromLane="0" toLane="1" dir="r" state="M"/>
    <connection from=":C_7" to="CN" fromLane="0" toLane="1" dir="s" state="M"/>
    <connection from=":C_8" to="CW" fromLane="0" toLane="1" via=":C_17_0" dir="l" state="m"/>
    <connection from=":C_17" to="CW" fromLane="0" toLane="1" dir="l" state="M"/>
    <connection from=":C_9" to="CS" fromLane="0" toLane="1" via=":C_18_0" dir="r" state="m"/>
    <connection from=":C_18" to="CS" fromLane="0" toLane="1" dir="r" state="M"/>
    <connection from=":C_10" to="CE" fromLane="0" toLane="1" dir="s" state="M"/>
    <connection from=":C_11" to="CN" fromLane="0" toLane="1" via=":C_19_0" dir="l" state="m"/>
    <connection from=":C_19" to="CN" fromLane="0" toLane="1" dir="l" state="M"/>
    <connection from=":N_0" to="NC" fromLane="0" toLane="1" dir="s" state="M"/>
    <connection from=":N_1" to="NN1" fromLane="0" toLane="1" dir="s" state="M"/>
    <connection from=":N1_0" to="N1N" fromLane="0" toLane="1" dir="s" state="M"/>
    <connection from=":N1_1" to="N1N2" fromLane="0" toLane="1" dir="s" state="M"/>
    <connection from=":N2_0" to="N2N1" fromLane="0" toLane="1" dir="s" state="M"/>
    <connection from=":N2_1" to="N2N3" fromLane="0" toLane="1" dir="s" state="M"/>
    <connection from=":S_0" to="SS1" fromLane="0" toLane="1" dir="s" state="M"/>
    <connection from=":S_1" to="SC" fromLane="0" toLane="1" dir="s" state="M"/>
    <connection from=":W_0" to="WW1" fromLane="0" toLane="1" dir="s" state="M"/>
    <connection from=":W_1" to="WC" fromLane="0" toLane="1" dir="s" state="M"/>

    <connection from=":C_c0" to=":C_w0" fromLane="0" toLane="0" dir="s" state="M"/>
    <connection from=":C_c1" to=":C_w1" fromLane="0" toLane="0" dir="s" state="M"/>
    <connection from=":C_c2" to=":C_w2" fromLane="0" toLane="0" dir="s" state="M"/>
    <connection from=":C_c3" to=":C_w3" fromLane="0" toLane="0" dir="s" state="M"/>
    <connection from=":C_w0" to=":C_c3" fromLane="0" toLane="0" tl="C" linkIndex="15" dir="s" state="M"/>
    <connection from=":C_w0" to="CW" fromLane="0" toLane="0" dir="s" state="M"/>
    <connection from="NC" to=":C_w0" fromLane="0" toLane="0" dir="s" state="M"/>
    <connection from=":C_w1" to=":C_c0" fromLane="0" toLane="0" tl="C" linkIndex="12" dir="s" state="M"/>
    <connection from=":C_w1" to="CN" fromLane="0" toLane="0" dir="s" state="M"/>
    <connection from=":C_w2" to=":C_c1" fromLane="0" toLane="0" tl="C" linkIndex="13" dir="s" state="M"/>
    <connection from="SC" to=":C_w2" fromLane="0" toLane="0" dir="s" state="M"/>
    <connection from=":C_w3" to=":C_c2" fromLane="0" toLane="0" tl="C" linkIndex="14" dir="s" state="M"/>
    <connection from=":C_w3" to="CS" fromLane="0" toLane="0" dir="s" state="M"/>
    <connection from="WC" to=":C_w3" fromLane="0" toLane="0" dir="s" state="M"/>
    <connection from=":N_w0" to="NC" fromLane="0" toLane="0" dir="s" state="M"/>
    <connection from="N1N" to=":N_w0" fromLane="0" toLane="0" dir="s" state="M"/>
    <connection from=":N_w1" to="NN1" fromLane="0" toLane="0" dir="s" state="M"/>
    <connection from="CN" to=":N_w1" fromLane="0" toLane="0" dir="s" state="M"/>
    <connection from=":N1_w0" to="N1N" fromLane="0" toLane="0" dir="s" state="M"/>
    <connection from="N2N1" to=":N1_w0" fromLane="0" toLane="0" dir="s" state="M"/>
    <connection from=":N1_w1" to="N1N2" fromLane="0" toLane="0" dir="s" state="M"/>
    <connection from="NN1" to=":N1_w1" fromLane="0" toLane="0" dir="s" state="M"/>
    <connection from=":N2_c0" to=":N2_w1" fromLane="0" toLane="0" dir="s" state="M"/>
    <connection from=":N2_w0" to=":N2_c0" fromLane="0" toLane="0" tl="N2" linkIndex="2" dir="s" state="M"/>
    <connection from=":N2_w0" to="N2N1" fromLane="0" toLane="0" dir="s" state="M"/>
    <connection from="N3N2" to=":N2_w0" fromLane="0" toLane="0" dir="s" state="M"/>
    <connection from=":N2_w1" to="N2N3" fromLane="0" toLane="0" dir="s" state="M"/>
    <connection from="N1N2" to=":N2_w1" fromLane="0" toLane="0" dir="s" state="M"/>
    <connection from=":N3_w0" to="N3N2" fromLane="0" toLane="0" dir="s" state="M"/>
    <connection from="N2N3" to=":N3_w0" fromLane="0" toLane="0" dir="s" state="M"/>
</net>
