<?xml version="1.0" encoding="UTF-8"?>
<connections version="0.13" xmlns:xsi="http://www.w3.org/2001/XMLSchema-instance" xsi:noNamespaceSchemaLocation="http://sumo.dlr.de/xsd/connections_file.xsd">
    <crossing node="C" edges="CE EC" width="4" priority="1"/>
    <crossing node="C" edges="CW WC" width="4" priority="1"/>
    <crossing node="C" edges="CN NC" width="4" priority="1"/>
    <crossing node="C" edges="CS SC" width="4" priority="1"/>
    <crossing node="N2" edges="N1N2 N2N1" width="4" priority="1"/>
</connections>